system_np
custom
${path_prdcustom}
exponential ${n_prd_blocks} ${blocksize} 1.2 0 0 ${ts} 
polymer ${n_poly}
1 2
${n_heavy}
${n_light}

#create_list all
#all

create_list heavy
type_species polymer 1

#create_list light
#type_species polymer 2

msd ./statistics/msd/all/msd_${usic}_${trial}_${namestring}_T${Temp}.all.dat
list heavy

ngp ./statistics/ngp/all/ngp_${usic}_${trial}_${namestring}_T${Temp}.all.dat
list heavy

structure_factor ./statistics/strFac/all/strFac_${usic}_${trial}_${namestring}_T${Temp}.all.dat symmetric xyz ${maxLenScale} 0
list heavy

isfs ./statistics/isfs/all/isfs_${usic}_${trial}_${namestring}_T${Temp}.all.dat ${waveindex} ${waveindex} xyz ${maxLenScale} 0
list heavy

